/batch
/config,noeldb,1     ! force off writing results to database
*get,_wallstrt,active,,time,wall
! ANSYS input file written by Workbench version 2020 R2
! File used for geometry attach: C:\Users\Varun\Documents\GitHub\The-Naked-Mile-Bot-69000\SolidWorks\Spring Arm.STEP
/title,unsaved_project--Static Structural (A5)
*DIM,_wb_ProjectScratch_dir,string,248
_wb_ProjectScratch_dir(1) = 'C:\Users\Varun\AppData\Local\Temp\WB_DESKTOP-OP64TH2_Varun_12756_2\_ProjectScratch\ScrC532\'
*DIM,_wb_SolverFiles_dir,string,248
_wb_SolverFiles_dir(1) = 'C:\Users\Varun\AppData\Local\Temp\WB_DESKTOP-OP64TH2_Varun_12756_2\unsaved_project_files\dp0\SYS\MECH\'
*DIM,_wb_userfiles_dir,string,248
_wb_userfiles_dir(1) = 'C:\Users\Varun\AppData\Local\Temp\WB_DESKTOP-OP64TH2_Varun_12756_2\unsaved_project_files\user_files\'
/com,--- Data in consistent MKS units. See Solving Units in the help system for more information.
/units,MKS
/nopr
/wb,file,start              !  signify a WB generated input file
/prep7
! Turn off shape checking because checks already performed inside WB mesher.
! See help system for more information.
SHPP,OFF,,NOWARN
/nolist
etcon,set             ! allow ANSYS to choose best KEYOP's for 180x elements
/com,*********** Nodes for the whole assembly ***********
nblock,3,,4266
(1i9,3e20.9e3)
        1    -6.260578649E-02     1.463230733E-02     2.250000000E-02
        2    -5.729319444E-02     1.320880258E-02     2.250000000E-02
        3    -6.127763848E-02     1.427643114E-02     2.488156986E-02
        4    -5.862134245E-02     1.356467877E-02     2.488156986E-02
        5    -6.415870076E-02     8.836752374E-03     2.250000000E-02
        6    -5.884610871E-02     7.413247626E-03     2.250000000E-02
        7    -6.283055275E-02     8.480876187E-03     2.488156986E-02
        8    -6.017425672E-02     7.769123813E-03     2.488156986E-02
        9    -6.260578649E-02     1.463230733E-02     2.500000000E-03
       10    -5.729319444E-02     1.320880258E-02     2.500000000E-03
       11    -6.127763848E-02     1.427643114E-02     4.881569860E-03
       12    -5.862134245E-02     1.356467877E-02     4.881569860E-03
       13    -6.415870076E-02     8.836752374E-03     2.500000000E-03
       14    -5.884610871E-02     7.413247626E-03     2.500000000E-03
       15    -6.283055275E-02     8.480876187E-03     4.881569860E-03
       16    -6.017425672E-02     7.769123813E-03     4.881569860E-03
       17     3.450000000E-02     3.673940397E-19     3.250000000E-02
       18     4.050000000E-02     0.000000000E+00     3.250000000E-02
       19     3.600000000E-02    -2.598076211E-03     3.250000000E-02
       20     3.900000000E-02    -2.598076211E-03     3.250000000E-02
! ... 3860 like lines cut
/com,*********** Nodes for all Remote Points ***********
nblock,3
(1i9,3e20.9e3)
     3880     3.750000000E-02    -1.898938451E-03     4.500000000E-02
-1
/wb,elem,start            !  set before creation of elements
/com,*********** Elements for Body 1 "Spring Arm-FreeParts|Boss-Extrude2" ***********
et,1,187
eblock,19,solid,,2047
(19i9)
        1        1        1        1        0        0        0        0       10        0        1      248      650      295      638     2206     2393     2203     2205
     3879     2392
        1        1        1        1        0        0        0        0       10        0        2      108      248      650      295     1340     2206     1342     1341
     2203     2393
        1        1        1        1        0        0        0        0       10        0        3      106      650      248      636     1335     2206     1332     1334
     3878     2204
        1        1        1        1        0        0        0        0       10        0        4      240      295      650      638     2147     2393     2159     2158
     2392     3879
        1        1        1        1        0        0        0        0       10        0        5      108      650      240      295     1342     2159     1339     1341
     2393     2147
        1        1        1        1        0        0        0        0       10        0        6       30       39      650      636      865      945      873      872
      943     3878
        1        1        1        1        0        0        0        0       10        0        7      106      248      650      108     1332     2206     1335     1331
     1340     1342
        1        1        1        1        0        0        0        0       10        0        8       30      650      106      636      873     1335      866      872
     3878     1334
        1        1        1        1        0        0        0        0       10        0        9       76      240      650      629     1153     2159     1156     1155
     2156     3875
        1        1        1        1        0        0        0        0       10        0       10       76      108      650      240     1152     1342     1156     1153
     1339     2159
! ... 4075 like lines cut
!Material Id = {D882E2D1-294A-4328-A5DC-2A2A9B00EA33}
/wb,elem,end               !  done creating elements
/com,*********** Send User Defined Coordinate System(s) ***********
csys,0
toffst,273.15,  ! Temperature offset from absolute zero
/com,*********** Set Reference Temperature ***********
tref,22.
/wb,mat,start              !  starting to send materials
/com,*********** Send Materials ***********
Temperature = 'TEMP' ! Temperature
MP,DENS,1,7850,	! kg m^-3
MP,ALPX,1,1.2e-05,	! C^-1
MP,C,1,434,	! J kg^-1 C^-1
MP,KXX,1,60.5,	! W m^-1 C^-1
MP,RSVX,1,1.7e-07,	! kg m^3 A^-2 s^-3
MP,EX,1,200000000000,	! Pa
MP,NUXY,1,0.3,
MP,MURX,1,10000,

/wb,mat,end                !  done sending materials
!************************* Model Summary ********************
!Spring Arm-FreeParts|Boss-Extrude2,	Structural Steel,	matid,	1
!************************* End Model Summary ********************
! get the diagonal of the bounding box. Needed later for other things
*get,_xmin,node,,mnloc,x
*get,_ymin,node,,mnloc,y
*get,_zmin,node,,mnloc,z
*get,_xmax,node,,mxloc,x
*get,_ymax,node,,mxloc,y
*get,_zmax,node,,mxloc,z
_ASMDIAG=(_xmax-_xmin)*(_xmax-_xmin)+(_ymax-_ymin)*(_ymax-_ymin)+(_zmax-_zmin)*(_zmax-_zmin)
_ASMDIAG=SQRT(_ASMDIAG)
/wb,contact,start          !  starting to send contact
/wb,contact,end            !  done creating contacts
/golist
/wb,load,start             !  starting to send loads
/com,*********** Fixed Supports ***********
CMBLOCK,_FIXEDSU,NODE,       35
(8i10)
        58        71        72       141       165       167       244       245
       249       250       289       290      1062      1063      1064      1133
      1135      1136      1137      1545      1546      1705      1706      1711
      1712      1713      2178      2179      2180      2187      2207      2209
      2213      2214      2382
cmsel,s,_FIXEDSU
d,all,all
nsel,all
/com,*********** Define Force Using Surface Effect Elements ***********
local,12,0,0.,0.,0.,0.,0.,0.
csys,0
et,2,154
eblock,10,,,8
(15i9)
     3111        2        2        2       12        1        3      265      265      651      667      265      654
     3112        2        2        2       12        2        3        4        4      658      665        4      659
     3113        2        2        2       12      266        1      265      265      655      654      265     2298
     3114        2        2        2       12      265        3        2        2      667      658        2      663
     3115        2        2        2       12        9       11       10       10      707      713       10      706
     3116        2        2        2       12       10       11       12       12      713      721       12      714
     3117        2        2        2       12        9       10      264      264      706      719      264      710
     3118        2        2        2       12       10      263      264      264      718     2293      264      719
-1
esel,s,type,,2
keyop,2,2,1                ! Apply load in local coordinate system
keyop,2,7,1                ! Use original area so load is constant in large deformation
keyop,2,11,2               ! Use real and not project area
esel,all
/com,*********** Create Remote Point "Internal Remote Point" ***********
! -------- Remote Point Used by "Moment" --------
*set,tid,4
*set,cid,3
et,cid,174
et,tid,170
keyo,tid,2,1               ! Don't fix the pilot node
keyo,tid,4,111111
keyo,cid,12,5              ! Bonded Contact 
keyo,cid,4,1               ! Deformable RBE3 style load
keyo,cid,2,2               ! MPC style contact
eblock,10,,,16
(15i9)
     3119        3        3        3        0       19       17      303      303      761      765      303      780
     3120        3        3        3        0       20       19      303      303      777      780      303      787
     3121        3        3        3        0       18       20       27       27      769      784       27      770
     3122        3        3        3        0       21       25       23       23      791      805       23      790
     3123        3        3        3        0       25       26      304      304      822      834      304      826
     3124        3        3        3        0       26       24       28       28      815      816       28      829
     3125        3        3        3        0       22       23      304      304      795      808      304      799
     3126        3        3        3        0       28       27      305      305      836      844      305      855
     3127        3        3        3        0      303       17       22       22      765      762       22      798
     3128        3        3        3        0       20      303      305      305      787     2421      305      788
     3129        3        3        3        0       27       20      305      305      784      788      305      844
     3130        3        3        3        0       23       25      304      304      805      826      304      808
     3131        3        3        3        0       26       28      305      305      829      855      305      835
     3132        3        3        3        0       22      304      303      303      799     2420      303      798
     3133        3        3        3        0      305      303      304      304     2421     2420      304     2426
     3134        3        3        3        0      304       26      305      305      834      835      305     2426
-1
*set,_npilot,3880
_npilot33=_npilot
type,tid
mat ,cid
real,cid
tshape,pilo
en,3135,_npilot
tshape
/com,*********** Construct Moment Using Remote Attachment ***********
/gst,on,on
fini
*get,_numnode,node,0,count
*get,_numelem,elem,0,count
*get, _MAXELEMNUM, elem, 0, NUM, MAX
*get, _MAXNODENUM, node, 0, NUM, MAX
*get, _MAXELEMTYPE, etyp, 0, NUM, MAX
*get, _MAXREALCONST, real, 0, NUM, MAX
/go
/wb,load,end               !  done creating loads
/com,--- Number of total nodes = %_numnode%
/com,--- Number of contact elements = 24
/com,--- Number of spring elements = 0
/com,--- Number of bearing elements = 0
/com,--- Number of solid elements = 2047
/com,--- Number of condensed parts = 0
/com,--- Number of total elements = %_numelem%
*get,_wallbsol,active,,time,wall
/com,****************************************************************************
/com,*************************    SOLUTION       ********************************
/com,****************************************************************************
/solu
antype,0                   ! static analysis
_thickRatio=  1     ! Ratio of thick parts in the model
eqsl,pcg,1e-8,,,,,,1
cntr,print,1               ! print out contact info and also make no initial contact an error
dmpoption,emat,no             ! Don't combine emat file for DANSYS
dmpoption,esav,no             ! Don't combine esav file for DANSYS
nldiag,cont,iter           ! print out contact info each equilibrium iteration
rescontrol,,none                 ! Do not keep any restart files
/com,****************************************************
/com,******************* SOLVE FOR LS 1 OF 1 ****************
esel,s,type,,2
nsle
sfe,all,1,pres,1,-32948.7680949478
sfe,all,2,pres,1,-122966.468975173
sfe,all,3,pres,1,0.
nsel,all
esel,all
nsel,s,node,,3880
f,all,mx,0.
f,all,my,0.
f,all,mz,-0.6
nsel,all
/nopr
/gopr
nsub,1,1,1
time,1.
outres,erase
outres,all,none
outres,nsol,all,
outres,rsol,all
outres,eangl,all
outres,etmp,all
outres,veng,all
outres,strs,all,
outres,epel,all,
outres,eppl,all,
outres,cont,all,
! *********** WB SOLVE COMMAND ***********
! check interactive state
*get,ANSINTER_,active,,int
*if,ANSINTER_,ne,0,then
/eof
*endif
solve
/com *************** Write FE CONNECTORS ********* 
CEWRITE,file,ce,,INTE
/com,****************************************************
/com,*************** FINISHED SOLVE FOR LS 1 *************
*get,_wallasol,active,,time,wall
/nopr
*get,_numnode,node,0,count
*get,_numelem,elem,0,count
*get, _MAXELEMNUM, elem, 0, NUM, MAX
*get, _MAXNODENUM, node, 0, NUM, MAX,,,INTERNAL
*get, _MAXELEMTYPE, etyp, 0, NUM, MAX
*get, _MAXREALCONST, real, 0, NUM, MAX
/gopr
*get,_PCGITER,active,,solu,cgiter
/post1
xmlo,ENCODING,ISO-8859-1
xmlo,parm
/xml,parm,xml
fini
/gopr
*get,_walldone,active,,time,wall
_preptime=(_wallbsol-_wallstrt)*3600
_solvtime=(_wallasol-_wallbsol)*3600
_posttime=(_walldone-_wallasol)*3600
_totaltim=(_walldone-_wallstrt)*3600
*get,_dlbratio,active,0,solu,dlbr
*get,_combtime,active,0,solu,comb
/com,--- Total number of nodes = %_numnode%
/com,--- Total number of elements = %_numelem%
/com,--- Element load balance ratio = %_dlbratio%
/com,--- Time to combine distributed files = %_combtime%
/wb,file,end               ! done with WB generated input
